Circuit: * D:\3_Tugas\S6_Sismik\Tugas_5_6\LT_Spice\Reconstruction-Filter.asc

V1: Removing PWL point (1e-005,0)
V1: Removing PWL point (0.00011,0.001633)
V1: Removing PWL point (0.00021,0.005199)
V1: Removing PWL point (0.00031,0.007855)
V1: Removing PWL point (0.00041,0.009037)
V1: Removing PWL point (0.00051,0.008884)
V1: Removing PWL point (0.00061,0.007177)
V1: Removing PWL point (0.00071,0.004222)
V1: Removing PWL point (0.00081,0.000812)
V1: Removing PWL point (0.00091,-0.002562)
V1: Removing PWL point (0.00101,-0.006596)
V1: Removing PWL point (0.00111,-0.009228)
V1: Removing PWL point (0.00121,-0.010848)
V1: Removing PWL point (0.00131,-0.01334)
V1: Removing PWL point (0.00141,-0.013752)
V1: Removing PWL point (0.00151,-0.012746)
V1: Removing PWL point (0.00161,-0.010312)
V1: Removing PWL point (0.00171,-0.006778)
V1: Removing PWL point (0.00181,-0.002845)
V1: Removing PWL point (0.00191,0.00065)
V1: Removing PWL point (0.00201,0.005422)
V1: Removing PWL point (0.00211,0.00796)
V1: Removing PWL point (0.00221,0.009775)
V1: Removing PWL point (0.00231,0.012561)
V1: Removing PWL point (0.00241,0.013132)
V1: Removing PWL point (0.00251,0.012218)
V1: Removing PWL point (0.00261,0.009902)
V1: Removing PWL point (0.00271,0.006456)
V1: Removing PWL point (0.00281,0.002491)
V1: Removing PWL point (0.00291,-0.000689)
V1: Removing PWL point (0.00301,-0.005735)
V1: Removing PWL point (0.00311,-0.007812)
V1: Removing PWL point (0.00321,-0.010362)
V1: Removing PWL point (0.00331,-0.012637)
V1: Removing PWL point (0.00341,-0.013168)
V1: Removing PWL point (0.00351,-0.012279)
V1: Removing PWL point (0.00361,-0.009948)
V1: Removing PWL point (0.00371,-0.006493)
V1: Removing PWL point (0.00381,-0.002321)
V1: Removing PWL point (0.00391,0.000479)
V1: Removing PWL point (0.00401,0.005783)
V1: Removing PWL point (0.00411,0.007933)
V1: Removing PWL point (0.00421,0.010027)
V1: Removing PWL point (0.00431,0.012637)
V1: Removing PWL point (0.00441,0.013209)
V1: Removing PWL point (0.00451,0.012264)
V1: Removing PWL point (0.00461,0.009956)
V1: Removing PWL point (0.00471,0.006511)
V1: Removing PWL point (0.00481,0.002464)
V1: Removing PWL point (0.00491,-0.000503)
V1: Removing PWL point (0.00501,-0.005861)
V1: Removing PWL point (0.00511,-0.007613)
V1: Removing PWL point (0.00521,-0.010534)
V1: Removing PWL point (0.00531,-0.012628)
V1: Removing PWL point (0.00541,-0.013153)
V1: Removing PWL point (0.00551,-0.012256)
V1: Removing PWL point (0.00561,-0.009947)
V1: Removing PWL point (0.00571,-0.006507)
V1: Removing PWL point (0.00581,-0.002262)
V1: Removing PWL point (0.00591,0.000294)
V1: Removing PWL point (0.00601,0.006025)
V1: Removing PWL point (0.00611,0.007742)
V1: Removing PWL point (0.00621,0.01019)
V1: Removing PWL point (0.00631,0.012629)
V1: Removing PWL point (0.00641,0.013207)
V1: Removing PWL point (0.00651,0.012253)
V1: Removing PWL point (0.00661,0.009959)
V1: Removing PWL point (0.00671,0.006523)
V1: Removing PWL point (0.00681,0.002421)
V1: Removing PWL point (0.00691,-0.000377)
V1: Removing PWL point (0.00701,-0.005976)
V1: Removing PWL point (0.00711,-0.007469)
V1: Removing PWL point (0.00721,-0.010681)
V1: Removing PWL point (0.00731,-0.012637)
V1: Removing PWL point (0.00741,-0.013149)
V1: Removing PWL point (0.00751,-0.012247)
V1: Removing PWL point (0.00761,-0.009954)
V1: Removing PWL point (0.00771,-0.006521)
V1: Removing PWL point (0.00781,-0.002234)
V1: Removing PWL point (0.00791,0.000161)
V1: Removing PWL point (0.00801,0.006201)
V1: Removing PWL point (0.00811,0.007594)
V1: Removing PWL point (0.00821,0.010317)
V1: Removing PWL point (0.00831,0.012626)
V1: Removing PWL point (0.00841,0.013207)
V1: Removing PWL point (0.00851,0.012244)
V1: Removing PWL point (0.00861,0.009963)
V1: Removing PWL point (0.00871,0.006532)
V1: Removing PWL point (0.00881,0.00239)
V1: Removing PWL point (0.00891,-0.000284)
V1: Removing PWL point (0.00901,-0.006059)
V1: Removing PWL point (0.00911,-0.007363)
V1: Removing PWL point (0.00921,-0.010787)
V1: Removing PWL point (0.00931,-0.012647)
V1: Removing PWL point (0.00941,-0.013114)
V1: Removing PWL point (0.00951,-0.01227)
V1: Removing PWL point (0.00961,-0.009935)
V1: Removing PWL point (0.00971,-0.006478)
V1: Removing PWL point (0.00981,-0.002293)
V1: Removing PWL point (0.00991,0.000513)
V1: Removing PWL point (0.01001,0.005697)
V1: Removing PWL point (0.01011,0.00801)
V1: Removing PWL point (0.01021,0.009974)
V1: Removing PWL point (0.01031,0.012645)
V1: Removing PWL point (0.01041,0.013212)
V1: Removing PWL point (0.01051,0.012271)
V1: Removing PWL point (0.01061,0.009957)
V1: Removing PWL point (0.01071,0.006507)
V1: Removing PWL point (0.01081,0.002481)
V1: Removing PWL point (0.01091,-0.000546)
V1: Removing PWL point (0.01101,-0.005819)
V1: Removing PWL point (0.01111,-0.007663)
V1: Removing PWL point (0.01121,-0.010481)
V1: Removing PWL point (0.01131,-0.012626)
V1: Removing PWL point (0.01141,-0.013153)
V1: Removing PWL point (0.01151,-0.01226)
V1: Removing PWL point (0.01161,-0.009946)
V1: Removing PWL point (0.01171,-0.006501)
V1: Removing PWL point (0.01181,-0.002271)
V1: Removing PWL point (0.01191,0.000341)
V1: Removing PWL point (0.01201,0.00596)
V1: Removing PWL point (0.01211,0.007796)
V1: Removing PWL point (0.01221,0.010145)
V1: Removing PWL point (0.01231,0.012631)
V1: Removing PWL point (0.01241,0.013207)
V1: Removing PWL point (0.01251,0.012257)
V1: Removing PWL point (0.01261,0.009959)
V1: Removing PWL point (0.01271,0.006519)
V1: Removing PWL point (0.01281,0.002433)
V1: Removing PWL point (0.01291,-0.000411)
V1: Removing PWL point (0.01301,-0.005945)
V1: Removing PWL point (0.01311,-0.007508)
V1: Removing PWL point (0.01321,-0.010642)
V1: Removing PWL point (0.01331,-0.012634)
V1: Removing PWL point (0.01341,-0.013151)
V1: Removing PWL point (0.01351,-0.012248)
V1: Removing PWL point (0.01361,-0.009952)
V1: Removing PWL point (0.01371,-0.006517)
V1: Removing PWL point (0.01381,-0.002242)
V1: Removing PWL point (0.01391,0.000196)
V1: Removing PWL point (0.01401,0.006155)
V1: Removing PWL point (0.01411,0.007633)
V1: Removing PWL point (0.01421,0.010283)
V1: Removing PWL point (0.01431,0.012627)
V1: Removing PWL point (0.01441,0.013207)
V1: Removing PWL point (0.01451,0.012245)
V1: Removing PWL point (0.01461,0.009963)
V1: Removing PWL point (0.01471,0.00653)
V1: Removing PWL point (0.01481,0.002398)
V1: Removing PWL point (0.01491,-0.000309)
V1: Removing PWL point (0.01501,-0.006036)
V1: Removing PWL point (0.01511,-0.007393)
V1: Removing PWL point (0.01521,-0.010758)
V1: Removing PWL point (0.01531,-0.012643)
V1: Removing PWL point (0.01541,-0.013114)
V1: Removing PWL point (0.01551,-0.012273)
V1: Removing PWL point (0.01561,-0.009934)
V1: Removing PWL point (0.01571,-0.006474)
V1: Removing PWL point (0.01581,-0.002299)
V1: Removing PWL point (0.01591,0.000554)
V1: Removing PWL point (0.01601,0.005634)
V1: Removing PWL point (0.01611,0.008059)
V1: Removing PWL point (0.01621,0.009936)
V1: Removing PWL point (0.01631,0.012649)
V1: Removing PWL point (0.01641,0.013213)
V1: Removing PWL point (0.01651,0.012273)
V1: Removing PWL point (0.01661,0.009956)
V1: Removing PWL point (0.01671,0.006504)
V1: Removing PWL point (0.01681,0.002494)
V1: Removing PWL point (0.01691,-0.000579)
V1: Removing PWL point (0.01701,-0.005788)
V1: Removing PWL point (0.01711,-0.007701)
V1: Removing PWL point (0.01721,-0.010442)
V1: Removing PWL point (0.01731,-0.012626)
V1: Removing PWL point (0.01741,-0.013154)
V1: Removing PWL point (0.01751,-0.012263)
V1: Removing PWL point (0.01761,-0.009945)
V1: Removing PWL point (0.01771,-0.006496)
V1: Removing PWL point (0.01781,-0.002279)
V1: Removing PWL point (0.01791,0.000375)
V1: Removing PWL point (0.01801,0.005912)
V1: Removing PWL point (0.01811,0.007835)
V1: Removing PWL point (0.01821,0.010113)
V1: Removing PWL point (0.01831,0.012633)
V1: Removing PWL point (0.01841,0.013209)
V1: Removing PWL point (0.01851,0.012259)
V1: Removing PWL point (0.01861,0.009959)
V1: Removing PWL point (0.01871,0.006516)
V1: Removing PWL point (0.01881,0.002441)
V1: Removing PWL point (0.01891,-0.000434)
V1: Removing PWL point (0.01901,-0.005923)
V1: Removing PWL point (0.01911,-0.007537)
V1: Removing PWL point (0.01921,-0.010611)
V1: Removing PWL point (0.01931,-0.012633)
V1: Removing PWL point (0.01941,-0.013151)
V1: Removing PWL point (0.01951,-0.012251)
V1: Removing PWL point (0.01961,-0.009951)
V1: Removing PWL point (0.01971,-0.006515)
V1: Removing PWL point (0.01981,-0.002247)
V1: Removing PWL point (0.01991,0.000223)
V1: Removing PWL point (0.02001,0.004453)
.OP point found by inspection.

Date: Wed Jun 30 11:44:16 2021
Total elapsed time: 0.096 seconds.

tnom = 27
temp = 27
method = modified trap
totiter = 2548
traniter = 2548
tranpoints = 1275
accept = 1226
rejected = 49
matrix size = 3
fillins = 0
solver = Normal
Matrix Compiler1: off  [0.0]/0.0/0.0
Matrix Compiler2: 175 bytes object code size  0.0/0.0/[0.0]

